60

C       0.998392   -1.465830    0.578554
C       2.240298   -1.465699    1.184328
P       0.056259    0.000000    0.011412
P       3.182743    0.000000    1.751099
C       0.998421   -4.396780    0.578708
C       2.240294   -4.396867    1.184550
P       0.055892   -2.931327    0.011738
P       3.182728   -2.931307    1.751556
C       0.998298   -7.328437    0.578496
C       2.240070   -7.328437    1.184549
P       0.056080   -5.862648    0.011631
P       3.182740   -5.862818    1.751443
C       0.998420  -10.260094    0.578708
C       2.240294  -10.260007    1.184551
P       0.056080   -8.794225    0.011631
P       3.182739   -8.794055    1.751443
C       0.998392  -13.191044    0.578555
C       2.240298  -13.191173    1.184328
P       0.055891  -11.725546    0.011738
P       3.182728  -11.725566    1.751556
C       5.756711   -1.465843    0.578661
C       6.998740   -1.465808    1.184186
P       4.814493    0.000000    0.011965
P       7.940580    0.000000    1.751623
C       5.756497   -4.396977    0.578703
C       6.998511   -4.396965    1.184326
P       4.814089   -2.931450    0.012069
P       7.940718   -2.931493    1.751547
C       5.756267   -7.328439    0.578521
C       6.998339   -7.328437    1.183945
P       4.813686   -5.862728    0.011810
P       7.940522   -5.862960    1.751505
C       5.756497  -10.259897    0.578704
C       6.998512  -10.259909    1.184327
P       4.813686   -8.794147    0.011810
P       7.940522   -8.793913    1.751506
C       5.756711  -13.191031    0.578661
C       6.998739  -13.191066    1.184186
P       4.814089  -11.725423    0.012069
P       7.940719  -11.725381    1.751547
C      10.513623   -1.465673    0.578824
C      11.755652   -1.465424    1.184373
P       9.571807    0.000000    0.011939
P      12.697947    0.000001    1.751490
C      10.513653   -4.396916    0.579049
C      11.755711   -4.396750    1.184528
P       9.571936   -2.931315    0.011735
P      12.697859   -2.931191    1.751752
C      10.513761   -7.328437    0.579212
C      11.755814   -7.328437    1.184598
P       9.571887   -5.862880    0.012037
P      12.698048   -5.862558    1.751571
C      10.513653  -10.259958    0.579049
C      11.755711  -10.260124    1.184527
P       9.571887   -8.793994    0.012037
P      12.698047   -8.794315    1.751571
C      10.513623  -13.191201    0.578825
C      11.755652  -13.191450    1.184373
P       9.571935  -11.725558    0.011735
P      12.697859  -11.725682    1.751752
