96

P       0.113015    0.002043   -0.062715
P       0.591916   -0.268035   -2.296619
P       0.161169   -2.812127   -0.023976
P       0.639660   -2.544785   -2.257579
P       4.990742   -1.235151   -2.295102
P       5.470420   -1.503332   -0.061682
P       4.942852   -4.049931   -2.260239
P       5.422161   -3.779210   -0.027013
C       2.430151   -0.130404   -2.178555
C       3.153003   -1.374790   -2.178482
C       2.481342   -2.647543   -2.179458
C       3.100718   -3.947664   -2.179881
C       7.931734   -0.100211   -0.140445
C       7.312152   -1.400145   -0.139992
C       7.983366   -2.673293   -0.141226
C       7.260672   -3.917830   -0.141973
P       0.112974   -5.088599   -0.062519
P       0.591893   -5.358608   -2.296456
P       0.161109   -7.902479   -0.023920
P       0.639712   -7.635287   -2.257591
P       4.990756   -6.325789   -2.295206
P       5.470333   -6.593957   -0.061787
P       4.942811   -9.140549   -2.260236
P       5.422356   -8.869844   -0.027085
C       2.430176   -5.221031   -2.178461
C       3.152805   -6.465502   -2.178221
C       2.481195   -7.738252   -2.179102
C       3.100879   -9.038313   -2.179861
C       7.931965   -5.190792   -0.140468
C       7.312298   -6.490670   -0.140218
C       7.983242   -7.764021   -0.141283
C       7.260339   -9.008409   -0.141940
P       0.112907  -10.178998   -0.062732
P       0.591868  -10.449285   -2.296604
P       0.161094  -12.993299   -0.024012
P       0.639771  -12.725990   -2.257658
P       4.990775  -11.416435   -2.295183
P       5.470444  -11.684508   -0.061765
P       4.942820  -14.231114   -2.260304
P       5.422171  -13.960387   -0.027102
C       2.430166  -10.311488   -2.178731
C       3.152922  -11.556003   -2.178224
C       2.481415  -12.828839   -2.179118
C       3.100743  -14.128897   -2.179796
C       7.931716  -10.281305   -0.140481
C       7.312282  -11.581341   -0.140126
C       7.983372  -12.854577   -0.141136
C       7.260558  -14.098959   -0.141892
P       9.773446    0.002124   -0.062668
P      10.252441   -0.268086   -2.296568
P       9.821662   -2.812005   -0.023983
P      10.300133   -2.544779   -2.257634
P      14.651222   -1.235376   -2.295231
P      15.130824   -1.503299   -0.061772
P      14.603311   -4.049942   -2.260249
P      15.082688   -3.779270   -0.027142
C      12.090663   -0.130185   -2.178401
C      12.813424   -1.374771   -2.178160
C      12.141930   -2.647619   -2.179072
C      12.761165   -3.947699   -2.179871
C      17.592078   -0.100215   -0.140430
C      16.972585   -1.400403   -0.140025
C      17.643969   -2.673283   -0.140951
C      16.920912   -3.917615   -0.141947
P       9.773335   -5.088469   -0.062627
P      10.252427   -5.358660   -2.296493
P       9.821673   -7.902620   -0.023967
P      10.300200   -7.635315   -2.257632
P      14.651216   -6.325819   -2.295235
P      15.130918   -6.593854   -0.061809
P      14.603302   -9.140462   -2.260323
P      15.082590   -8.869716   -0.027092
C      12.090567   -5.221063   -2.178501
C      12.813446   -6.465425   -2.178171
C      12.141887   -7.738164   -2.179058
C      12.761225   -9.038253   -2.179805
C      17.592085   -5.190760   -0.140492
C      16.972789   -6.490585   -0.140212
C      17.643806   -7.763961   -0.141244
C      16.921302   -9.008545   -0.141931
P       9.773568  -10.179109   -0.062613
P      10.252405  -10.449174   -2.296529
P       9.821597  -12.993253   -0.023938
P      10.300172  -12.725870   -2.257590
P      14.651274  -11.416349   -2.295270
P      15.130771  -11.684574   -0.061749
P      14.603401  -14.231212   -2.260258
P      15.082640  -13.960556   -0.027039
C      12.090629  -10.311596   -2.178470
C      12.813273  -11.556007   -2.178384
C      12.141814  -12.828885   -2.179131
C      12.761534  -14.129012   -2.179873
C      17.592502  -10.281221   -0.140077
C      16.972454  -11.581491   -0.139767
C      17.643838  -12.854330   -0.140993
C      16.921267  -14.098805   -0.141817
