30

P      -0.118418   -0.000816   -0.012554
P       1.218031   -0.274476   -1.863812
P      -0.078726   -2.815961    0.006847
P       1.256494   -2.551189   -1.844392
P       5.198244   -1.248060    0.006253
P       6.533276   -1.514196   -1.844622
P       5.158226   -4.065229   -0.011811
P       6.494663   -3.789565   -1.862823
C       2.874410   -0.139237   -1.066186
C       3.541434   -1.385392   -0.791207
C       2.917908   -2.658824   -1.040822
C       3.497421   -3.958125   -0.815417
C       8.774002   -0.105131   -0.815597
C       8.194712   -1.404628   -1.040666
C       8.818107   -2.678007   -0.790947
C       8.151337   -3.924114   -1.066001
P      -0.118418   -5.093007   -0.012554
P       1.218031   -5.366669   -1.863813
P       5.198244   -6.340253    0.006254
P       6.533276   -6.606387   -1.844623
C       2.874409   -5.231429   -1.066187
C       3.541433   -6.477584   -0.791207
C       8.773999   -5.197321   -0.815598
C       8.194711   -6.496822   -1.040667
P      10.435175   -0.000816   -0.012556
P      11.771627   -0.274476   -1.863812
P      10.474870   -2.815961    0.006846
P      11.810091   -2.551188   -1.844391
P      10.435178   -5.093007   -0.012556
P      11.771627   -5.366668   -1.863815
